2021-01-25 14:07:05,536 disclaimer INFO 

 PCR-GLOBWB (PCRaster Global Water Balance) Global Hydrological Model                       

 Copyright (C) 2016, Ludovicus P. H. (Rens) van Beek, Edwin H. Sutanudjaja, Yoshihide Wada, 
 Joyce H. C. Bosmans, Niels Drost, Inge E. M. de Graaf, Kor de Jong, Patricia Lopez Lopez,  
 Stefanie Pessenteiner, Oliver Schmitz, Menno W. Straatsma, Niko Wanders, Dominik Wisser,   
 and Marc F. P. Bierkens,                                                                   
 Faculty of Geosciences, Utrecht University, Utrecht, The Netherlands                       

 This program comes with ABSOLUTELY NO WARRANTY                                             
 This is free software, and you are welcome to redistribute it under certain conditions     
 See the LICENSE file for more details                                                      


2021-01-25 14:07:05,537 configuration INFO Model run started at 2021-01-25 14:07:05.484974
2021-01-25 14:07:05,538 configuration INFO Logging output to /data/output/log/rhine_05min_NO_MOSELLE_era5.ini_2021-01-25T14.07.05.484974.log
2021-01-25 14:07:05,538 configuration INFO Debugging output to /data/output/log/rhine_05min_NO_MOSELLE_era5.ini_2021-01-25T14.07.05.484974.dbg
2021-01-25 14:07:05,539 configuration WARNING The option "useMODFLOW" is not defined in the "groundwaterOptions" of the configuration file. We assume "False" for this option.
2021-01-25 14:07:05,539 configuration WARNING The option "maximumDailyGroundwaterAbstraction" is not defined in the "groundwaterOptions" of the configuration file. This run assumes "0.050 m/day" for this option.
2021-01-25 14:07:05,540 configuration WARNING The option "maximumDailyFossilGroundwaterAbstraction" is not defined in the "groundwaterOptions" of the configuration file. This run assumes "0.020 m/day" for this option.
2021-01-25 14:07:05,574 currTimeStep INFO number of time steps: 365
2021-01-25 14:07:05,574 bmiPcrglobwb INFO Shape of maps is (108, 127)
2021-01-25 14:07:05,575 bmiPcrglobwb INFO PCRGlobWB: initialize_model, source dir <empty> is not used
2021-01-25 14:07:06,700 meteo INFO Precipitation forcing will be downscaled to the cloneMap resolution.
2021-01-25 14:07:06,701 meteo INFO Temperature forcing will be downscaled to the cloneMap resolution.
2021-01-25 14:07:11,337 landSurface INFO Irrigation is included/considered in this run.
2021-01-25 14:07:11,337 landSurface INFO Domestic water demand is included in the calculation.
2021-01-25 14:07:11,338 landSurface INFO Industry water demand is included in the calculation.
2021-01-25 14:07:11,338 landSurface INFO Livestock water demand is included in the calculation.
2021-01-25 14:07:11,338 landSurface INFO Using the dynamicIrrigationArea option. Extent of irrigation areas is based on the file provided in the 'historicalIrrigationArea'.
2021-01-25 14:07:12,108 landSurface INFO Monthly desalination water is included.
2021-01-25 14:07:14,548 landSurface INFO Using/incorporating the predefined surface water source of Siebert et al. (2010) for satisfying irrigation and livestock demand.
2021-01-25 14:07:17,765 landSurface INFO Using/incorporating the predefined surface water source of McDonald et al. (2014) for satisfying domestic and industrial demand.
2021-01-25 14:07:37,828 landSurface INFO Using the default set of soil and topo parameters as defined in the landSurfaceOptions of the ini/configuration file.
2021-01-25 14:07:37,829 landSurface INFO Using the default set of soil and topo parameters as defined in the landSurfaceOptions of the ini/configuration file.
2021-01-25 14:07:37,829 landSurface INFO Using the default set of soil and topo parameters as defined in the landSurfaceOptions of the ini/configuration file.
2021-01-25 14:07:37,829 landSurface INFO Using the default set of soil and topo parameters as defined in the landSurfaceOptions of the ini/configuration file.
2021-01-25 14:07:49,322 landCover WARNING As the "Original" interceptionModuleType is used, the "minInterceptCap" value is ignored. The interception scope is only "canopy".
2021-01-25 14:07:53,882 landCover WARNING This run assumes zero canopy interception capacity for this run, UNLESS minInterceptCap (minimum interception capacity) is bigger than zero.

2021-01-25 14:07:53,883 landCover WARNING As the "Original" interceptionModuleType is used, the "minInterceptCap" value is ignored. The interception scope is only "canopy".
2021-01-25 14:07:58,438 landCover WARNING This run assumes zero canopy interception capacity for this run, UNLESS minInterceptCap (minimum interception capacity) is bigger than zero.

2021-01-25 14:07:58,626 landSurface INFO Determining fraction of total irrigated areas over each cell
2021-01-25 14:08:26,457 groundwater INFO Limit for annual regional groundwater abstraction is used.
2021-01-25 14:08:29,410 groundwater INFO Fossil groundwater abstractions are allowed with LIMIT.
2021-01-25 14:08:29,410 groundwater INFO Estimating fossil groundwater capacities based on aquifer thicknesses and specific yield.
2021-01-25 14:08:38,511 groundwater INFO Using a pre-defined initial condition for fossil groundwater storage.
2021-01-25 14:08:39,462 groundwater INFO The pre-defined initial condition for fossil groundwater is limited by fossilWaterCap (full capacity).
2021-01-25 14:08:58,168 reporting INFO Creating the netcdf file for daily reporting for variable gwRecharge.
2021-01-25 14:08:58,181 reporting INFO Creating the netcdf file for daily reporting for variable storGroundwater.
2021-01-25 14:08:58,190 reporting INFO Creating the netcdf file for daily reporting for variable totalGroundwaterAbstraction.
2021-01-25 14:08:58,198 reporting INFO Creating the netcdf file for daily reporting for variable discharge.
2021-01-25 14:08:58,206 reporting INFO Creating the netcdf file for daily reporting for variable storLowTotal.
2021-01-25 14:08:58,214 reporting INFO Creating the netcdf file for daily reporting for variable precipitation_at_irrigation.
2021-01-25 14:08:58,222 reporting INFO Creating the netcdf file for daily reporting for variable surfaceWaterStorage.
2021-01-25 14:08:58,231 reporting INFO Creating the netcdf file for daily reporting for variable temperature.
2021-01-25 14:08:58,240 reporting INFO Creating the netcdf file for daily reporting for variable domesticWaterWithdrawal.
2021-01-25 14:08:58,248 reporting INFO Creating the netcdf file for daily reporting for variable interceptStor.
2021-01-25 14:08:58,256 reporting INFO Creating the netcdf file for daily reporting for variable nonIrrGrossDemand.
2021-01-25 14:08:58,264 reporting INFO Creating the netcdf file for daily reporting for variable irrPaddyWaterWithdrawal.
2021-01-25 14:08:58,271 reporting INFO Creating the netcdf file for daily reporting for variable totalEvaporation.
2021-01-25 14:08:58,279 reporting INFO Creating the netcdf file for daily reporting for variable channelStorage.
2021-01-25 14:08:58,287 reporting INFO Creating the netcdf file for daily reporting for variable storUppTotal.
2021-01-25 14:08:58,294 reporting INFO Creating the netcdf file for daily reporting for variable nonIrrWaterConsumption.
2021-01-25 14:08:58,302 reporting INFO Creating the netcdf file for daily reporting for variable surfaceWaterAbstraction.
2021-01-25 14:08:58,311 reporting INFO Creating the netcdf file for daily reporting for variable surfaceWaterLevel.
2021-01-25 14:08:58,319 reporting INFO Creating the netcdf file for daily reporting for variable evaporation_from_irrigation.
2021-01-25 14:08:58,327 reporting INFO Creating the netcdf file for daily reporting for variable snowFreeWater.
2021-01-25 14:08:58,335 reporting INFO Creating the netcdf file for daily reporting for variable totalWaterStorageThickness.
2021-01-25 14:08:58,346 reporting INFO Creating the netcdf file for daily reporting for variable precipitation.
2021-01-25 14:08:58,354 reporting INFO Creating the netcdf file for daily reporting for variable snowCoverSWE.
2021-01-25 14:08:58,362 reporting INFO Creating the netcdf file for daily reporting for variable totalRunoff.
2021-01-25 14:08:58,370 reporting INFO Creating the netcdf file for daily reporting for variable dynamicFracWat.
2021-01-25 14:08:58,379 reporting INFO Creating the netcdf file for daily reporting for variable industryWaterWithdrawal.
2021-01-25 14:08:58,388 reporting INFO Creating the netcdf file for daily reporting for variable topWaterLayer.
2021-01-25 14:08:58,412 bmiPcrglobwb INFO Shape of maps is (108, 127)
2021-01-25 14:08:58,413 bmiPcrglobwb INFO PCRGlobWB Initialized
2021-01-25 14:09:45,541 pcrglobwb INFO Reading forcings for time 2002-01-01
2021-01-25 14:09:45,748 grpc._server ERROR Exception calling application: Size mismatch: Number of array elements is 13932, number of raster cells is 13716
Traceback (most recent call last):
  File "/usr/local/lib/python2.7/dist-packages/grpc/_server.py", line 435, in _call_behavior
    response_or_iterator = behavior(argument, context)
  File "/usr/local/lib/python2.7/dist-packages/grpc4bmi/bmi_grpc_server.py", line 31, in update
    self.bmi_model_.update()
  File "/opt/PCR-GLOBWB_model/model/bmiPcrglobwb.py", line 211, in update
    self.model.read_forcings()
  File "/opt/PCR-GLOBWB_model/model/pcrglobwb.py", line 439, in read_forcings
    self.meteo.read_forcings(self._modelTime)
  File "/opt/PCR-GLOBWB_model/model/meteo.py", line 388, in read_forcings
    LatitudeLongitude = True)
  File "/opt/PCR-GLOBWB_model/model/virtualOS.py", line 393, in netcdf2PCRobjClone
    float(f.variables[varName]._FillValue))
  File "/usr/local/python/pcraster/numpy_operations.py", line 46, in numpy2pcr
    return _pcraster.numpy2pcr(_pcraster.clone(), dataType, array, mv)
RuntimeError: Size mismatch: Number of array elements is 13932, number of raster cells is 13716
