2021-09-22 08:53:15,751 disclaimer INFO 

 PCR-GLOBWB (PCRaster Global Water Balance) Global Hydrological Model                       

 Copyright (C) 2016, Ludovicus P. H. (Rens) van Beek, Edwin H. Sutanudjaja, Yoshihide Wada, 
 Joyce H. C. Bosmans, Niels Drost, Inge E. M. de Graaf, Kor de Jong, Patricia Lopez Lopez,  
 Stefanie Pessenteiner, Oliver Schmitz, Menno W. Straatsma, Niko Wanders, Dominik Wisser,   
 and Marc F. P. Bierkens,                                                                   
 Faculty of Geosciences, Utrecht University, Utrecht, The Netherlands                       

 This program comes with ABSOLUTELY NO WARRANTY                                             
 This is free software, and you are welcome to redistribute it under certain conditions     
 See the LICENSE file for more details                                                      


2021-09-22 08:53:15,751 configuration INFO Model run started at 2021-09-22 08:53:15.745369
2021-09-22 08:53:15,751 configuration INFO Logging output to /home/rhut/technicalPaperExampleNotebooks/ewatercycle_output/pcrglobwb_20210922_085313/log/pcrglobwb_ewatercycle.ini_2021-09-22T08.53.15.745369.log
2021-09-22 08:53:15,751 configuration INFO Debugging output to /home/rhut/technicalPaperExampleNotebooks/ewatercycle_output/pcrglobwb_20210922_085313/log/pcrglobwb_ewatercycle.ini_2021-09-22T08.53.15.745369.dbg
2021-09-22 08:53:15,751 configuration WARNING The option "useMODFLOW" is not defined in the "groundwaterOptions" of the configuration file. We assume "False" for this option.
2021-09-22 08:53:15,751 configuration WARNING The option "maximumDailyGroundwaterAbstraction" is not defined in the "groundwaterOptions" of the configuration file. This run assumes "0.050 m/day" for this option.
2021-09-22 08:53:15,751 configuration WARNING The option "maximumDailyFossilGroundwaterAbstraction" is not defined in the "groundwaterOptions" of the configuration file. This run assumes "0.020 m/day" for this option.
2021-09-22 08:53:15,791 currTimeStep INFO number of time steps: 365
2021-09-22 08:53:15,791 bmiPcrglobwb INFO Shape of maps is (54, 54)
2021-09-22 08:53:15,791 bmiPcrglobwb INFO PCRGlobWB: initialize_model, source dir <empty> is not used
2021-09-22 08:53:16,440 meteo INFO Precipitation forcing will be downscaled to the cloneMap resolution.
2021-09-22 08:53:16,440 meteo INFO Temperature forcing will be downscaled to the cloneMap resolution.
2021-09-22 08:53:18,452 landSurface INFO Irrigation is included/considered in this run.
2021-09-22 08:53:18,452 landSurface INFO Domestic water demand is included in the calculation.
2021-09-22 08:53:18,452 landSurface INFO Industry water demand is included in the calculation.
2021-09-22 08:53:18,452 landSurface INFO Livestock water demand is included in the calculation.
2021-09-22 08:53:18,452 landSurface INFO Using the dynamicIrrigationArea option. Extent of irrigation areas is based on the file provided in the 'historicalIrrigationArea'.
2021-09-22 08:53:18,782 landSurface INFO Monthly desalination water is included.
2021-09-22 08:53:19,434 landSurface INFO Using/incorporating the predefined surface water source of Siebert et al. (2010) for satisfying irrigation and livestock demand.
2021-09-22 08:53:22,127 landSurface INFO Using/incorporating the predefined surface water source of McDonald et al. (2014) for satisfying domestic and industrial demand.
2021-09-22 08:53:49,663 landSurface INFO Using the default set of soil and topo parameters as defined in the landSurfaceOptions of the ini/configuration file.
2021-09-22 08:53:49,663 landSurface INFO Using the default set of soil and topo parameters as defined in the landSurfaceOptions of the ini/configuration file.
2021-09-22 08:53:49,663 landSurface INFO Using the default set of soil and topo parameters as defined in the landSurfaceOptions of the ini/configuration file.
2021-09-22 08:53:49,663 landSurface INFO Using the default set of soil and topo parameters as defined in the landSurfaceOptions of the ini/configuration file.
2021-09-22 08:54:03,635 landCover WARNING As the "Original" interceptionModuleType is used, the "minInterceptCap" value is ignored. The interception scope is only "canopy".
2021-09-22 08:54:08,274 landCover WARNING This run assumes zero canopy interception capacity for this run, UNLESS minInterceptCap (minimum interception capacity) is bigger than zero.

2021-09-22 08:54:08,274 landCover WARNING As the "Original" interceptionModuleType is used, the "minInterceptCap" value is ignored. The interception scope is only "canopy".
2021-09-22 08:54:12,047 landCover WARNING This run assumes zero canopy interception capacity for this run, UNLESS minInterceptCap (minimum interception capacity) is bigger than zero.

2021-09-22 08:54:12,063 landSurface INFO Determining fraction of total irrigated areas over each cell
2021-09-22 08:55:14,696 groundwater INFO Limit for annual regional groundwater abstraction is used.
2021-09-22 08:55:18,852 groundwater INFO Fossil groundwater abstractions are allowed with LIMIT.
2021-09-22 08:55:18,852 groundwater INFO Estimating fossil groundwater capacities based on aquifer thicknesses and specific yield.
2021-09-22 08:55:41,799 groundwater INFO Using a pre-defined initial condition for fossil groundwater storage.
2021-09-22 08:55:45,067 groundwater INFO The pre-defined initial condition for fossil groundwater is limited by fossilWaterCap (full capacity).
