2021-09-22 08:41:14,145 disclaimer INFO 

 PCR-GLOBWB (PCRaster Global Water Balance) Global Hydrological Model                       

 Copyright (C) 2016, Ludovicus P. H. (Rens) van Beek, Edwin H. Sutanudjaja, Yoshihide Wada, 
 Joyce H. C. Bosmans, Niels Drost, Inge E. M. de Graaf, Kor de Jong, Patricia Lopez Lopez,  
 Stefanie Pessenteiner, Oliver Schmitz, Menno W. Straatsma, Niko Wanders, Dominik Wisser,   
 and Marc F. P. Bierkens,                                                                   
 Faculty of Geosciences, Utrecht University, Utrecht, The Netherlands                       

 This program comes with ABSOLUTELY NO WARRANTY                                             
 This is free software, and you are welcome to redistribute it under certain conditions     
 See the LICENSE file for more details                                                      


2021-09-22 08:41:14,145 configuration INFO Model run started at 2021-09-22 08:41:14.139300
2021-09-22 08:41:14,145 configuration INFO Logging output to /home/rhut/technicalPaperExampleNotebooks/ewatercycle_output/pcrglobwb_20210922_084109/log/pcrglobwb_ewatercycle.ini_2021-09-22T08.41.14.139300.log
2021-09-22 08:41:14,145 configuration INFO Debugging output to /home/rhut/technicalPaperExampleNotebooks/ewatercycle_output/pcrglobwb_20210922_084109/log/pcrglobwb_ewatercycle.ini_2021-09-22T08.41.14.139300.dbg
2021-09-22 08:41:14,146 configuration WARNING The option "useMODFLOW" is not defined in the "groundwaterOptions" of the configuration file. We assume "False" for this option.
2021-09-22 08:41:14,146 configuration WARNING The option "maximumDailyGroundwaterAbstraction" is not defined in the "groundwaterOptions" of the configuration file. This run assumes "0.050 m/day" for this option.
2021-09-22 08:41:14,146 configuration WARNING The option "maximumDailyFossilGroundwaterAbstraction" is not defined in the "groundwaterOptions" of the configuration file. This run assumes "0.020 m/day" for this option.
2021-09-22 08:41:15,180 currTimeStep INFO number of time steps: 365
2021-09-22 08:41:15,180 bmiPcrglobwb INFO Shape of maps is (54, 54)
2021-09-22 08:41:15,180 bmiPcrglobwb INFO PCRGlobWB: initialize_model, source dir <empty> is not used
2021-09-22 08:41:16,963 meteo INFO Precipitation forcing will be downscaled to the cloneMap resolution.
2021-09-22 08:41:16,963 meteo INFO Temperature forcing will be downscaled to the cloneMap resolution.
2021-09-22 08:41:18,827 landSurface INFO Irrigation is included/considered in this run.
2021-09-22 08:41:18,827 landSurface INFO Domestic water demand is included in the calculation.
2021-09-22 08:41:18,827 landSurface INFO Industry water demand is included in the calculation.
2021-09-22 08:41:18,827 landSurface INFO Livestock water demand is included in the calculation.
2021-09-22 08:41:18,827 landSurface INFO Using the dynamicIrrigationArea option. Extent of irrigation areas is based on the file provided in the 'historicalIrrigationArea'.
2021-09-22 08:41:19,105 landSurface INFO Monthly desalination water is included.
2021-09-22 08:41:19,941 landSurface INFO Using/incorporating the predefined surface water source of Siebert et al. (2010) for satisfying irrigation and livestock demand.
2021-09-22 08:41:21,158 landSurface INFO Using/incorporating the predefined surface water source of McDonald et al. (2014) for satisfying domestic and industrial demand.
2021-09-22 08:41:34,411 landSurface INFO Using the default set of soil and topo parameters as defined in the landSurfaceOptions of the ini/configuration file.
2021-09-22 08:41:34,412 landSurface INFO Using the default set of soil and topo parameters as defined in the landSurfaceOptions of the ini/configuration file.
2021-09-22 08:41:34,412 landSurface INFO Using the default set of soil and topo parameters as defined in the landSurfaceOptions of the ini/configuration file.
2021-09-22 08:41:34,412 landSurface INFO Using the default set of soil and topo parameters as defined in the landSurfaceOptions of the ini/configuration file.
2021-09-22 08:41:43,759 landCover WARNING As the "Original" interceptionModuleType is used, the "minInterceptCap" value is ignored. The interception scope is only "canopy".
2021-09-22 08:41:46,342 landCover WARNING This run assumes zero canopy interception capacity for this run, UNLESS minInterceptCap (minimum interception capacity) is bigger than zero.

2021-09-22 08:41:46,343 landCover WARNING As the "Original" interceptionModuleType is used, the "minInterceptCap" value is ignored. The interception scope is only "canopy".
2021-09-22 08:41:49,943 landCover WARNING This run assumes zero canopy interception capacity for this run, UNLESS minInterceptCap (minimum interception capacity) is bigger than zero.

2021-09-22 08:41:49,958 landSurface INFO Determining fraction of total irrigated areas over each cell
2021-09-22 08:42:13,878 groundwater INFO Limit for annual regional groundwater abstraction is used.
2021-09-22 08:42:15,885 groundwater INFO Fossil groundwater abstractions are allowed with LIMIT.
2021-09-22 08:42:15,885 groundwater INFO Estimating fossil groundwater capacities based on aquifer thicknesses and specific yield.
2021-09-22 08:42:25,646 groundwater INFO Using a pre-defined initial condition for fossil groundwater storage.
2021-09-22 08:42:26,185 groundwater INFO The pre-defined initial condition for fossil groundwater is limited by fossilWaterCap (full capacity).
